4、CSEE-PFO/PSD-BPA/PFO2.dat
(POWERFLOW,CASEID=LF1,PROJECT=PSD)
/PF_MAP,FILE = LF1-EQU-equ.MAP\         
/NEW_BASE,FILE = LF1-EQU-equ.BSE\       
/MVA_BASE = 100\                  
/P_OUTPUT_LIST,FULL\             
/RPT_SORT=ZONE\                  
/P_ANALYSIS,LEVEL=4\             
/NETWORK_DATA\     
.......................................Bus and Line.........................................
B     B01     525.1S
B     B02     525.1S
B     B03     525.1S
B     B04     525.1S
B     B05     525.1S                                             
B     B06     525.1S                                                 
BS    RE-Bus  525.ZL                  9999     99999-99991.0
B     B07     525.1S
B     B08     525.1S              1855
B     B09     525.1S              1855

B     B10     230.1S260. 70.
B     B11     230.1S260. 70.
B     B12     230.1S50.  32.  
B     B13     230.1S230. 30.
B     B14     230.1S230. 30. 
B     B15     230.1S400. 70.         
B     B16     230.1S400. 70.     
    
B     B17     230.1S       
B     B18     230.1S
B     B19     230.1S
B     B20     230.1S
.B     B21     230.1S 
.B     B22     230.1S  
.B     B23     230.1S 
.B     B24     230.1S
B     B25     230.1S   
B     B26     230.1S  
B     B27     230.1S  
.B     B28     230.1S  

  
B     B29     37. 1S                 
B     B30     37. 1S                 
B     B31     37. 1S                 
B     B32     37. 1S             
B     B33     37. 1S             
B     B34     37. 1S             
B     B35     37. 1S             
B     B36     37. 1S             
B     B37     37. 1S             
B     B38     37. 1S             
B     B39     37. 1S               
B     B40     37. 1S               20.   
B     B41     37. 1S                      
B     B42     37. 1S                      
B     B43     37. 1S              20.                     
B     B44     37. 1S                      
B     B45     37. 1S                      
B     B46     37. 1S                      
B     B47     37. 1S              20.              
.B     B48     37. 1S                
.B     B49     37. 1S               
.B     B50     37. 1S               
.B     B51     37. 1S               
.B     B52     37. 1S               
.B     B53     37. 1S              
.B     B54     37. 1S              
.B     B55     37. 1S              
B     B56     37. 1S             
B     B57     37. 1S  
B     B58     37. 1S          
B     B59     37. 1S  
B     B60     37. 1S              
B     B61     37. 1S                 
.B     B62     37. 1S                 
.B     B63     37. 1S                 
     
L     B02     525. B01     525.1 4000 .00017.00279      .94143  
L     B02     525. B01     525.2 4000 .00014.00277      .94111  

L     B03     525. B01     525.1 4000 .00017.00279      .94143  
L     B03     525. B01     525.2 4000 .00014.00277      .94111  

L     B04     525. B01     525.1 1600 .00007.00106      .37106   
L     B04     525. B01     525.2 1600 .00007.00111      .37669   

L     B05     525. B01     525.1 1600 .00007.00101      .34864   
L     B05     525. B01     525.2 1600 .00007.00103      .35739   

L     B01     525. B06     525.1 967. .00011.00199      .13682                                      
L     B01     525. B06     525.2 967. .00011.00199      .13682    
                                  
L     B01     525. B07     525.1 967. .00011.00199      .13682                                      
L     B01     525. B07     525.2 967. .00011.00199      .13682                                      
                                                                                      
............................DC Parameter........................................

BD    DP01    210.      2 290.   5. 120.     5000.B08     525. 
BD    DP02    199.      2 290.7.    120.     5000.B09     525. 
LD    DP01    210.1DP02    199.  50005.    800.        R1850. 500. 15. 17.
T     B08     525. DP01    210.  3000       .006              525. 210.4        
R     B08     525.1DP01    210.  DP01    210.7021948819 0
T     B09     525. DP02    199.  3000       .006              525. 199.4          
R     B09     525.1DP02    199.  DP02    199.688.5484.5 0

BD    DN01    210.      2 290.   5. 120.     5000.B08     525.
BD    DN02    199.      2 290.7.    120.     5000.B09     525.
LD    DN01    210.1DN02    199.  50005.    785.37      R1850. 500. 15. 17.
T     B08     525. DN01    210.  3000       .006              525. 210.4           
R     B08     525.1DN01    210.  DN01    210.7021948819 0
T     B09     525. DN02    199.  3000       .006              525. 199.4          
R     B09     525.1DN02    199.  DN02    199.688.5484.5 0

L     RE-Bus  525. B09     525.             .0001
L     B08     525. B01     525.             .0001
...................................Condenser and Transformer.......................
                                                                                  
.BQ    SC02-01  20.2R                           300. -150.1.00                    
.BQ    SC02-02  20.2R                           300. -150.1.00                      
.BQ    SC03-03  20.2R                           300. -150.1.00                      
.BQ    SC03-04  20.2R                           300. -150.1.03  
                                                                    
.T     B02     525. SC02-01  20.1 360. .00031  .023             525.  20.               
.T     B02     525. SC02-02  20.1 360. .00031  .023             525.  20.               
.T     B03     525. SC03-03  20.1 360. .00031  .023             525.  20.                
.T     B03     525. SC03-04  20.1 360. .00031  .023             525.  20.    
............................Generator and Transformer .........................................                                                                                                                                                               m:  328.0 ;  Csum:    0.0 ;  COMP: L 82.0 x 4
 
BQ    TP04-01  20.1S                  660.500.  522.-374.1.0
BQ    TP04-02  20.1S                  660.500.  522.-374.1.0
BQ    TP04-03  20.1S                  660.400.  510.-294.1.0                                                                                                                                                              
BQ    TP05-04  20.1S                  660.500.  510.-294.1.0                                                                                                                     
BQ    TP05-05  20.1S                  660.400.  300.-200.1.0                                                                                                                                                                          
BS    TP05-06  20.1S                  660.400.  300.-200.1.0                                                                                                                                  
BQ    TP05-07  20.1S                  660.400.  510.-294.1.0                                
                              
T     TP04-01  20. B04     525.  750. .00028.03331              20. 525.                                  
T     TP04-02  20. B04     525.  750. .00028.03331              20. 525.                                   
T     TP04-03  20. B04     525.  750. .00028.03331              20. 525.                                
T     TP05-04  20. B05     525.  750. .00028.03331              20. 525.                                 
T     TP05-05  20. B05     525.  750. .00028.03331              20. 525.                                
T     TP05-06  20. B05     525.  750. .00028.03331              20. 525.                                
T     TP05-07  20. B05     525.  750. .00028.03331              20. 525.              

............................Wind Turbine、 Transformer and Lines................................ 

B     WT02-01  .691S                  200.200.                            
B     WT02-02  .691S                  200.200.                                 
B     WT02-03  .691S                  200.200.                         
B     WT02-04  .691S                  200.200.
B     WT02-05  .691S                  200.200.   
B     WT02-06  .691S                  200.200.   
B     WT02-07  .691S                  200.200.   
B     WT02-08  .691S                  200.200.  
 
.B     WT02-09  .691S                  200.200.  
.B     WT02-10  .691S                  200.200.  
.B     WT02-11  .691S                  200.200.  
.B     WT02-12  .691S                  200.200.  

.B     WT03-13  .691S                  200.200.
.B     WT03-14  .691S                  200.200.
.B     WT03-15  .691S                  200.200.
.B     WT03-16  .691S                  200.200.

T     WT02-01  .69 B40      37.  240.       .02708              .69 37.          
T     WT02-02  .69 B41      37.  240.       .02708              .69 37.          
T     WT02-03  .69 B42      37.  240.       .02708              .69 37.          
T     WT02-04  .69 B43      37.  240.       .02708              .69 37.          
T     WT02-05  .69 B44      37.  240.       .02708              .69 37.          
T     WT02-06  .69 B45      37.  240.       .02708              .69 37.          
T     WT02-07  .69 B46      37.  240.       .02708              .69 37.          
T     WT02-08  .69 B47      37.  240.       .02708              .69 37.  

.T     WT02-09  .69 B48      37.  240.       .02708              .69 37.  
.T     WT02-10  .69 B49      37.  240.       .02708              .69 37.  
.T     WT02-11  .69 B50      37.  240.       .02708              .69 37.  
.T     WT02-12  .69 B51      37.  240.       .02708              .69 37.  

.T     WT03-13  .69 B52      37.  240.       .02708              .69 37.  
.T     WT03-14  .69 B53      37.  240.       .02708              .69 37.  
.T     WT03-15  .69 B54      37.  240.       .02708              .69 37.                                                                        
.T     WT03-16  .69 B55      37.  240.       .02708              .69 37.    

T     B17     230. B40      37.  300.         .035             230.  37.       
T     B17     230. B41      37.  300.         .035             230.  37.       
T     B18     230. B42      37.  300.         .035             230.  37.       
T     B18     230. B43      37.  300.         .035             230.  37.       
T     B19     230. B44      37.  300.         .035             230.  37.       
T     B19     230. B45      37.  300.         .035             230.  37.       
T     B20     230. B46      37.  300.         .035             230.  37.       
T     B20     230. B47      37.  300.         .035             230.  37.     
  
.T     B21     230. B48      37.  300.         .035             230.  37.       
.T     B21     230. B49      37.  300.         .035             230.  37.       
.T     B22     230. B50      37.  300.         .035             230.  37.       
.T     B22     230. B51      37.  300.         .035             230.  37. 
      
.T     B23     230. B52      37.  300.         .035             230.  37.       
.T     B23     230. B53      37.  300.         .035             230.  37.       
.T     B24     230. B54      37.  300.         .035             230.  37.       
.T     B24     230. B55      37.  300.         .035             230.  37.       
                                                                              
L     B10     230. B17     230.1 1596 .00186.01307      .02412
L     B10     230. B17     230.2 1596 .00186.01307      .02412
L     B10     230. B18     230.1 1596 .00186.01307      .02412
L     B10     230. B18     230.2 1596 .00186.01307      .02412
L     B10     230. B19     230.1 1596 .00186.01307      .02412
L     B10     230. B19     230.2 1596 .00186.01307      .02412
L     B10     230. B20     230.1 1596 .00186.01307      .02412
L     B10     230. B20     230.2 1596 .00186.01307      .02412

.L     B10     230. B21     230.1 1596 .00186.01307      .02412
.L     B10     230. B21     230.2 1596 .00186.01307      .02412
.L     B10     230. B22     230.1 1596 .00186.01307      .02412
.L     B10     230. B22     230.2 1596 .00186.01307      .02412

.L     B11     230. B23     230.1 1596 .00186.01307      .02412
.L     B11     230. B23     230.2 1596 .00186.01307      .02412
.L     B11     230. B24     230.1 1596 .00186.01307      .02412
.L     B11     230. B24     230.2 1596 .00186.01307      .02412

       
................................. photovoltaics 、Transformer and Lines......................................... 

B     PV03-01  .4 1S                  400.200.                       
B     PV03-02  .4 1S                  400.200.                       
B     PV03-03  .4 1S                  400.200.                       
B     PV03-04  .4 1S                  400.200.                       
B     PV03-05  .4 1S                  400.200.                       
B     PV03-06  .4 1S                  400.200.                       
.B     PV03-07  .4  1S                  400.200.                       
.B     PV03-08  .4  1S                  400.200.                       
.由于变压器容量限制，光伏每台最多发300MW
T     PV03-01  .4   B56     37.1 360.       .01806              .4 37.                                                                                                                                                                                                                                                                                                                                                                                                                                                                                                                                                                                                                                                                                                                                                                                                                                                                                                                                                                                                                                                                                                                                                                                                                                                                                                                                                                                                                                                                                                                                                                                                                                                                                                                                                                                                                                                                                                                                                                                                                                                                                                                                                                                                                                                                                                                                                                                                                                                                                                                                                                                                                                                                                                                                                                                                                                                                                                                                                                                                                                                                                                                                                                                                                                                                                                                                                                                                                                               
T     PV03-02  .4   B57     37.1 360.       .01806              .4 37.                                                                                
T     PV03-03  .4   B58     37.1 360.       .01806              .4 37.                                                                                                                                                                                                                                                                                                                                                                                                                                                                                                                                                                                                                                                                                                                                                                                                                                                                                                                                                                                                                                                                                                                                                                                                                                                                                                                                                                                                                                                                                                                                                                                                                                                                                                                                                                                                                                                                                                                                                                                                                                                                                                                                                                                                                                                                                                                                                                                                                                                                                                                                                                                                                                                                                                                                                                                                                                                                                                                                                                                                                                                                                                                                                                                                                                                                                                                                                                                                                                               
T     PV03-04  .4   B59     37.1 360.       .01806              .4 37.                                                                                
T     PV03-05  .4   B60     37.1 360.       .01806              .4 37.                                                                                                                                                                                                                                                                                                                                                                                                                                                                                                                                                                                                                                                                                                                                                                                                                                                                                                                                                                                                                                                                                                                                                                                                                                                                                                                                                                                                                                                                                                                                                                                                                                                                                                                                                                                                                                                                                                                                                                                                                                                                                                                                                                                                                                                                                                                                                                                                                                                                                                                                                                                                                                                                                                                                                                                                                                                                                                                                                                                                                                                                                                                                                                                                                                                                                                                                                                                                                                               
T     PV03-06  .4   B61     37.1 360.       .01806              .4 37.                                                                                
.T     PV03-07  .4   B62     37.1 360.       .01806              .4 37.                                                                                                                                                                                                                                                                                                                                                                                                                                                                                                                                                                                                                                                                                                                                                                                                                                                                                                                                                                                                                                                                                                                                                                                                                                                                                                                                                                                                                                                                                                                                                                                                                                                                                                                                                                                                                                                                                                                                                                                                                                                                                                                                                                                                                                                                                                                                                                                                                                                                                                                                                                                                                                                                                                                                                                                                                                                                                                                                                                                                                                                                                                                                                                                                                                                                                                                                                                                                                                               
.T     PV03-08  .4   B63     37.1 360.       .01806              .4 37.                                                                                
                                                                                
T     B25     230. B56      37.  300.         .035             230.  37.        
T     B25     230. B57      37.  300.         .035             230.  37.        
T     B26     230. B58      37.  300.         .035             230.  37.        
T     B26     230. B59      37.  300.         .035             230.  37.        
T     B27     230. B60      37.  300.         .035             230.  37.        
T     B27     230. B61      37.  300.         .035             230.  37.        
.T     B28     230. B62      37.  300.         .035             230.  37.                            
.T     B28     230. B63      37.  300.         .035             230.  37.         
                                                                                
L     B11     230. B25     230.1 1596 .00186.01307      .02412                                                                                   
L     B11     230. B25     230.2 1596 .00186.01307      .02412                                                                                   
L     B11     230. B26     230.1 1596 .00186.01307      .02412                                                                                   
L     B11     230. B26     230.2 1596 .00186.01307      .02412                                                                                                     
L     B11     230. B27     230.1 1596 .00186.01307      .02412                                                                               
L     B11     230. B27     230.2 1596 .00186.01307      .02412   
.L     B11     230. B28     230.1 1596 .00186.01307      .02412   
.L     B11     230. B28     230.2 1596 .00186.01307      .02412   

............................Three-winding Transformer...................................  
                    
B     T3-01     1.1S
B     T3-02     1.1S
B     T3-03     1.1S
B     T3-04     1.1S
B     T3-05     1.1S
B     T3-06     1.1S
B     T3-07     1.1S
B     T3-08     1.1S
B     T3-09     1.1S
B     T3-10     1.1S
B     T3-11     1.1S
 
                                               

T     T3-01     1. B02     525.  1000 .00005 .0157               1. 525.  
T     T3-01     1. B10     230.  1000 .00005-00158               1. 230.
T     T3-01     1. B29     37.   360. .00021.02668               1.37.  
                 
T     T3-02     1. B02     525.  1000 .00005 .0157               1. 525.      
T     T3-02     1. B10     230.  1000 .00005-00158               1. 230.   
T     T3-02     1. B30     37.   360. .00021.02668               1.37.      

T     T3-03     1. B02     525.  1000 .00005 .0157               1. 525.      
T     T3-03     1. B10     230.  1000 .00005-00158               1. 230.       
T     T3-03     1. B31     37.   360. .00021.02668               1.37.       

T     T3-04     1. B03     525.  1000 .00005 .0157               1. 525.     
T     T3-04     1. B11     230.  1000 .00005-00158               1. 230.  
T     T3-04     1. B32     37.   360. .00021.02668               1.37.  

T     T3-05     1. B03     525.  1000 .00005 .0157               1. 525.     
T     T3-05     1. B11     230.  1000 .00005-00158               1. 230.  
T     T3-05     1. B33     37.   360. .00021.02668               1.37.       
                                           
T     T3-06     1. B03     525.  1000 .00005 .0157               1. 525.
T     T3-06     1. B11     230.  1000 .00005-00158               1. 230.
T     T3-06     1. B34     37.   360. .00021.02668               1.37. 

T     T3-07     1. B01     525.  1000 .00005 .0157               1. 525.      
T     T3-07     1. B12     230.  1000 .00005-00158               1. 230.   
T     T3-07     1. B35     37.   360. .00021.02668               1.37.  

T     T3-08     1. B04     525.  1000 .00005 .0157               1. 525.      
T     T3-08     1. B13     230.  1000 .00005-00158               1. 230.   
T     T3-08     1. B36     37.   360. .00021.02668               1.37.       
                                          
T     T3-09     1. B05     525.  1000 .00005 .0157               1. 525.
T     T3-09     1. B14     230.  1000 .00005-00158               1. 230.
T     T3-09     1. B37     37.   360. .00021.02668               1.37. 

T     T3-10     1. B06     525.  1000 .00005 .0157               1. 525.      
T     T3-10     1. B15     230.  1000 .00005-00158               1. 230.   
T     T3-10     1. B38     37.   360. .00021.02668               1.37.       
                                          
T     T3-11     1. B07     525.  1000 .00005 .0157               1. 525.
T     T3-11     1. B16     230.  1000 .00005-00158               1. 230.
T     T3-11     1. B39     37.   360. .00021.02668               1.37. 
 







                       
/CHANGES\                        
/SOLUTION\                       
>AI_CONTROL= MON<                 
>LTC= ON<                         
>SOL_ITER,DECOUPLED=30,CURRENT=0,NEWTON=30,OPTIM=0<
(END)
